<?xml version="1.0" encoding="UTF-8"?>

<!-- generated on 2023-05-29 10:44:41 by Eclipse SUMO netedit Version 1.17.0
<configuration xmlns:xsi="http://www.w3.org/2001/XMLSchema-instance" xsi:noNamespaceSchemaLocation="http://sumo.dlr.de/xsd/netconvertConfiguration.xsd">

    <input>
        <sumo-net-file value="C:\Users\Mlang\Downloads\Experimentos Completos con carga variable\net.net.xml"/>
    </input>

    <output>
        <output-file value="C:\Users\Mlang\Downloads\Experimentos Completos con carga variable\net.net.xml"/>
    </output>

    <processing>
        <geometry.min-radius.fix.railways value="false"/>
        <geometry.max-grade.fix value="false"/>
        <offset.disable-normalization value="true"/>
        <lefthand value="0"/>
    </processing>

    <junctions>
        <no-turnarounds value="true"/>
        <junctions.corner-detail value="5"/>
        <junctions.limit-turn-speed value="5.50"/>
        <rectangular-lane-cut value="0"/>
    </junctions>

    <pedestrian>
        <walkingareas value="0"/>
    </pedestrian>

</configuration>
-->

<net version="1.16" junctionCornerDetail="5" limitTurnSpeed="5.50" xmlns:xsi="http://www.w3.org/2001/XMLSchema-instance" xsi:noNamespaceSchemaLocation="http://sumo.dlr.de/xsd/net_file.xsd">

    <location netOffset="-503818.83,-2142950.62" convBoundary="536.88,1408.87,2251.39,3236.50" origBoundary="-98.963629,19.380682,-98.937596,19.416181" projParameter="+proj=utm +zone=14 +ellps=WGS84 +datum=WGS84 +units=m +no_defs"/>

    <type id="highway.bridleway" priority="1" numLanes="1" speed="2.78" allow="pedestrian" oneway="1" width="2.00"/>
    <type id="highway.bus_guideway" priority="1" numLanes="1" speed="27.78" allow="bus" oneway="1"/>
    <type id="highway.cycleway" priority="1" numLanes="1" speed="5.56" allow="bicycle" oneway="0" width="1.00"/>
    <type id="highway.footway" priority="1" numLanes="1" speed="2.78" allow="pedestrian" oneway="1" width="2.00"/>
    <type id="highway.ford" priority="1" numLanes="1" speed="2.78" allow="army" oneway="0"/>
    <type id="highway.living_street" priority="2" numLanes="1" speed="2.78" disallow="tram rail_urban rail rail_electric rail_fast ship" oneway="0"/>
    <type id="highway.motorway" priority="14" numLanes="2" speed="39.44" allow="private emergency authority army vip passenger hov taxi bus coach delivery truck trailer motorcycle evehicle custom1 custom2" oneway="1"/>
    <type id="highway.motorway_link" priority="9" numLanes="1" speed="22.22" allow="private emergency authority army vip passenger hov taxi bus coach delivery truck trailer motorcycle evehicle custom1 custom2" oneway="1"/>
    <type id="highway.path" priority="1" numLanes="1" speed="5.56" allow="pedestrian bicycle" oneway="0" width="2.00"/>
    <type id="highway.pedestrian" priority="1" numLanes="1" speed="2.78" allow="pedestrian" oneway="1" width="2.00"/>
    <type id="highway.primary" priority="12" numLanes="2" speed="27.78" disallow="tram rail_urban rail rail_electric rail_fast ship" oneway="0"/>
    <type id="highway.primary_link" priority="7" numLanes="1" speed="22.22" disallow="tram rail_urban rail rail_electric rail_fast ship" oneway="0"/>
    <type id="highway.raceway" priority="15" numLanes="2" speed="83.33" allow="vip" oneway="0"/>
    <type id="highway.residential" priority="3" numLanes="1" speed="13.89" disallow="tram rail_urban rail rail_electric rail_fast ship" oneway="0"/>
    <type id="highway.secondary" priority="11" numLanes="1" speed="27.78" disallow="tram rail_urban rail rail_electric rail_fast ship" oneway="0"/>
    <type id="highway.secondary_link" priority="6" numLanes="1" speed="22.22" disallow="tram rail_urban rail rail_electric rail_fast ship" oneway="0"/>
    <type id="highway.service" priority="1" numLanes="1" speed="5.56" allow="pedestrian delivery bicycle" oneway="0"/>
    <type id="highway.stairs" priority="1" numLanes="1" speed="1.39" allow="pedestrian" oneway="1" width="2.00"/>
    <type id="highway.step" priority="1" numLanes="1" speed="1.39" allow="pedestrian" oneway="1" width="2.00"/>
    <type id="highway.steps" priority="1" numLanes="1" speed="1.39" allow="pedestrian" oneway="1" width="2.00"/>
    <type id="highway.tertiary" priority="10" numLanes="1" speed="22.22" disallow="tram rail_urban rail rail_electric rail_fast ship" oneway="0"/>
    <type id="highway.tertiary_link" priority="5" numLanes="1" speed="22.22" disallow="tram rail_urban rail rail_electric rail_fast ship" oneway="0"/>
    <type id="highway.track" priority="1" numLanes="1" speed="5.56" allow="pedestrian motorcycle moped bicycle" oneway="0"/>
    <type id="highway.trunk" priority="13" numLanes="2" speed="27.78" disallow="pedestrian bicycle tram rail_urban rail rail_electric rail_fast ship" oneway="0"/>
    <type id="highway.trunk_link" priority="8" numLanes="1" speed="22.22" disallow="pedestrian bicycle tram rail_urban rail rail_electric rail_fast ship" oneway="0"/>
    <type id="highway.unclassified" priority="4" numLanes="1" speed="13.89" disallow="tram rail_urban rail rail_electric rail_fast ship" oneway="0"/>
    <type id="highway.unsurfaced" priority="1" numLanes="1" speed="8.33" disallow="tram rail_urban rail rail_electric rail_fast ship" oneway="0"/>
    <type id="railway.highspeed" priority="21" numLanes="1" speed="69.44" allow="rail_fast" oneway="1"/>
    <type id="railway.light_rail" priority="19" numLanes="1" speed="27.78" allow="rail_urban" oneway="1"/>
    <type id="railway.preserved" priority="16" numLanes="1" speed="27.78" allow="rail" oneway="1"/>
    <type id="railway.rail" priority="20" numLanes="1" speed="44.44" allow="rail" oneway="1"/>
    <type id="railway.subway" priority="18" numLanes="1" speed="27.78" allow="rail_urban" oneway="1"/>
    <type id="railway.tram" priority="17" numLanes="1" speed="13.89" allow="tram" oneway="1"/>

    <edge id=":1795001889_0" function="internal">
        <lane id=":1795001889_0_0" index="0" disallow="tram rail_urban rail rail_electric rail_fast ship" speed="6.49" length="9.04" shape="2004.96,1437.95 2003.99,1435.66 2002.52,1434.24 2000.56,1433.69 1998.10,1434.00"/>
    </edge>
    <edge id=":1795001889_1" function="internal">
        <lane id=":1795001889_1_0" index="0" disallow="tram rail_urban rail rail_electric rail_fast ship" speed="7.98" length="14.24" shape="2004.96,1437.95 2004.50,1434.07 2005.39,1430.98 2007.65,1428.70 2011.26,1427.21"/>
    </edge>
    <edge id=":1795001889_2" function="internal">
        <lane id=":1795001889_2_0" index="0" disallow="tram rail_urban rail rail_electric rail_fast ship" speed="3.65" length="4.67" shape="2004.96,1437.95 2005.42,1436.58 2006.09,1435.99 2006.97,1436.17 2008.05,1437.12"/>
    </edge>
    <edge id=":1795001889_3" function="internal">
        <lane id=":1795001889_3_0" index="0" disallow="tram rail_urban rail rail_electric rail_fast ship" speed="6.48" length="9.03" shape="2012.05,1430.31 2009.76,1431.26 2008.33,1432.71 2007.76,1434.66 2008.05,1437.12"/>
    </edge>
    <edge id=":1795001889_4" function="internal">
        <lane id=":1795001889_4_0" index="0" disallow="tram rail_urban rail rail_electric rail_fast ship" speed="13.89" length="14.43" shape="2012.05,1430.31 1998.10,1434.00"/>
    </edge>
    <edge id=":1795001889_5" function="internal">
        <lane id=":1795001889_5_0" index="0" disallow="tram rail_urban rail rail_electric rail_fast ship" speed="3.65" length="1.44" shape="2012.05,1430.31 2010.69,1429.83"/>
    </edge>
    <edge id=":1795001889_9" function="internal">
        <lane id=":1795001889_9_0" index="0" disallow="tram rail_urban rail rail_electric rail_fast ship" speed="3.65" length="3.23" shape="2010.69,1429.83 2010.11,1429.15 2010.30,1428.28 2011.26,1427.21"/>
    </edge>
    <edge id=":1795001889_6" function="internal">
        <lane id=":1795001889_6_0" index="0" disallow="tram rail_urban rail rail_electric rail_fast ship" speed="13.89" length="14.50" shape="1997.25,1430.92 2011.26,1427.21"/>
    </edge>
    <edge id=":1795001889_7" function="internal">
        <lane id=":1795001889_7_0" index="0" disallow="tram rail_urban rail rail_electric rail_fast ship" speed="7.99" length="4.15" shape="1997.25,1430.92 2001.12,1430.42 2001.36,1430.49"/>
    </edge>
    <edge id=":1795001889_8" function="internal">
        <lane id=":1795001889_8_0" index="0" disallow="tram rail_urban rail rail_electric rail_fast ship" speed="3.65" length="1.44" shape="1997.25,1430.92 1998.62,1431.37"/>
    </edge>
    <edge id=":1795001889_10" function="internal">
        <lane id=":1795001889_10_0" index="0" disallow="tram rail_urban rail rail_electric rail_fast ship" speed="7.99" length="10.08" shape="2001.36,1430.49 2004.21,1431.29 2006.52,1433.53 2008.05,1437.12"/>
    </edge>
    <edge id=":1795001889_11" function="internal">
        <lane id=":1795001889_11_0" index="0" disallow="tram rail_urban rail rail_electric rail_fast ship" speed="3.65" length="3.23" shape="1998.62,1431.37 1999.21,1432.04 1999.04,1432.91 1998.10,1434.00"/>
    </edge>
    <edge id=":1795001897_0" function="internal">
        <lane id=":1795001897_0_0" index="0" disallow="tram rail_urban rail rail_electric rail_fast ship" speed="13.89" length="0.15" shape="1957.08,1444.63 1957.23,1444.59"/>
    </edge>
    <edge id=":1795001897_1" function="internal">
        <lane id=":1795001897_1_0" index="0" disallow="tram rail_urban rail rail_electric rail_fast ship" speed="3.65" length="2.34" shape="1957.08,1444.63 1955.72,1444.14 1955.14,1443.46"/>
    </edge>
    <edge id=":1795001897_4" function="internal">
        <lane id=":1795001897_4_0" index="0" disallow="tram rail_urban rail rail_electric rail_fast ship" speed="3.65" length="2.34" shape="1955.14,1443.46 1955.34,1442.59 1956.31,1441.52"/>
    </edge>
    <edge id=":1795001897_2" function="internal">
        <lane id=":1795001897_2_0" index="0" disallow="tram rail_urban rail rail_electric rail_fast ship" speed="13.89" length="0.10" shape="1956.39,1441.50 1956.31,1441.52"/>
    </edge>
    <edge id=":1795001897_3" function="internal">
        <lane id=":1795001897_3_0" index="0" disallow="tram rail_urban rail rail_electric rail_fast ship" speed="3.65" length="2.34" shape="1956.39,1441.50 1957.76,1441.96 1958.35,1442.63"/>
    </edge>
    <edge id=":1795001897_5" function="internal">
        <lane id=":1795001897_5_0" index="0" disallow="tram rail_urban rail rail_electric rail_fast ship" speed="3.65" length="2.34" shape="1958.35,1442.63 1958.18,1443.50 1957.23,1444.59"/>
    </edge>
    <edge id=":1795001898_0" function="internal">
        <lane id=":1795001898_0_0" index="0" disallow="tram rail_urban rail rail_electric rail_fast ship" speed="13.89" length="0.31" shape="1936.56,1450.07 1936.27,1450.15"/>
    </edge>
    <edge id=":1795001898_1" function="internal">
        <lane id=":1795001898_1_0" index="0" disallow="tram rail_urban rail rail_electric rail_fast ship" speed="3.65" length="2.34" shape="1936.56,1450.07 1935.20,1449.60 1934.61,1448.93"/>
    </edge>
    <edge id=":1795001898_4" function="internal">
        <lane id=":1795001898_4_0" index="0" disallow="tram rail_urban rail rail_electric rail_fast ship" speed="3.65" length="2.34" shape="1934.61,1448.93 1934.79,1448.05 1935.75,1446.97"/>
    </edge>
    <edge id=":1795001898_2" function="internal">
        <lane id=":1795001898_2_0" index="0" disallow="tram rail_urban rail rail_electric rail_fast ship" speed="13.89" length="0.29" shape="1935.46,1447.05 1935.75,1446.97"/>
    </edge>
    <edge id=":1795001898_3" function="internal">
        <lane id=":1795001898_3_0" index="0" disallow="tram rail_urban rail rail_electric rail_fast ship" speed="3.65" length="2.34" shape="1935.46,1447.05 1936.83,1447.52 1937.41,1448.20"/>
    </edge>
    <edge id=":1795001898_5" function="internal">
        <lane id=":1795001898_5_0" index="0" disallow="tram rail_urban rail rail_electric rail_fast ship" speed="3.65" length="2.34" shape="1937.41,1448.20 1937.23,1449.07 1936.27,1450.15"/>
    </edge>
    <edge id=":1795001899_0" function="internal">
        <lane id=":1795001899_0_0" index="0" disallow="tram rail_urban rail rail_electric rail_fast ship" speed="13.89" length="0.31" shape="1903.32,1459.15 1903.02,1459.23"/>
    </edge>
    <edge id=":1795001899_1" function="internal">
        <lane id=":1795001899_1_0" index="0" disallow="tram rail_urban rail rail_electric rail_fast ship" speed="3.65" length="2.34" shape="1903.32,1459.15 1901.94,1458.71 1901.34,1458.06"/>
    </edge>
    <edge id=":1795001899_4" function="internal">
        <lane id=":1795001899_4_0" index="0" disallow="tram rail_urban rail rail_electric rail_fast ship" speed="3.65" length="2.34" shape="1901.34,1458.06 1901.50,1457.18 1902.43,1456.08"/>
    </edge>
    <edge id=":1795001899_2" function="internal">
        <lane id=":1795001899_2_0" index="0" disallow="tram rail_urban rail rail_electric rail_fast ship" speed="13.89" length="0.22" shape="1902.22,1456.13 1902.43,1456.08"/>
    </edge>
    <edge id=":1795001899_3" function="internal">
        <lane id=":1795001899_3_0" index="0" disallow="tram rail_urban rail rail_electric rail_fast ship" speed="3.65" length="2.34" shape="1902.22,1456.13 1903.58,1456.61 1904.17,1457.28"/>
    </edge>
    <edge id=":1795001899_5" function="internal">
        <lane id=":1795001899_5_0" index="0" disallow="tram rail_urban rail rail_electric rail_fast ship" speed="3.65" length="2.34" shape="1904.17,1457.28 1903.98,1458.16 1903.02,1459.23"/>
    </edge>
    <edge id=":1795001910_0" function="internal">
        <lane id=":1795001910_0_0" index="0" disallow="tram rail_urban rail rail_electric rail_fast ship" speed="6.07" length="7.85" shape="1846.74,1475.42 1846.46,1473.28 1846.95,1471.58 1848.18,1470.32 1850.18,1469.49"/>
    </edge>
    <edge id=":1795001910_1" function="internal">
        <lane id=":1795001910_1_0" index="0" disallow="tram rail_urban rail rail_electric rail_fast ship" speed="3.65" length="4.67" shape="1846.74,1475.42 1847.19,1474.05 1847.85,1473.45 1848.73,1473.63 1849.82,1474.57"/>
    </edge>
    <edge id=":1795001910_2" function="internal">
        <lane id=":1795001910_2_0" index="0" disallow="tram rail_urban rail rail_electric rail_fast ship" speed="3.90" length="2.62" shape="1850.97,1472.59 1850.30,1472.87 1849.89,1473.29 1849.73,1473.86 1849.82,1474.57"/>
    </edge>
    <edge id=":1795001910_3" function="internal">
        <lane id=":1795001910_3_0" index="0" disallow="tram rail_urban rail rail_electric rail_fast ship" speed="3.65" length="4.67" shape="1850.97,1472.59 1849.61,1472.11 1849.02,1471.44 1849.21,1470.56 1850.18,1469.49"/>
    </edge>
    <edge id=":1795001950_0" function="internal">
        <lane id=":1795001950_0_0" index="0" disallow="tram rail_urban rail rail_electric rail_fast ship" speed="6.83" length="9.41" shape="1875.89,1588.75 1874.94,1586.49 1873.42,1585.02 1871.34,1584.33 1868.69,1584.43"/>
    </edge>
    <edge id=":1795001950_1" function="internal">
        <lane id=":1795001950_1_0" index="0" disallow="tram rail_urban rail rail_electric rail_fast ship" speed="22.22" length="14.39" shape="1875.89,1588.75 1872.47,1574.77"/>
    </edge>
    <edge id=":1795001950_2" function="internal">
        <lane id=":1795001950_2_0" index="0" disallow="tram rail_urban rail rail_electric rail_fast ship" speed="3.65" length="1.44" shape="1875.89,1588.75 1876.38,1587.39"/>
    </edge>
    <edge id=":1795001950_9" function="internal">
        <lane id=":1795001950_9_0" index="0" disallow="tram rail_urban rail rail_electric rail_fast ship" speed="3.65" length="3.23" shape="1876.38,1587.39 1877.05,1586.81 1877.93,1587.00 1879.00,1587.96"/>
    </edge>
    <edge id=":1795001950_3" function="internal">
        <lane id=":1795001950_3_0" index="0" disallow="tram rail_urban rail rail_electric rail_fast ship" speed="22.22" length="14.34" shape="1875.59,1574.03 1879.00,1587.96"/>
    </edge>
    <edge id=":1795001950_4" function="internal">
        <lane id=":1795001950_4_0" index="0" disallow="tram rail_urban rail rail_electric rail_fast ship" speed="7.89" length="4.00" shape="1875.59,1574.03 1875.94,1578.01"/>
    </edge>
    <edge id=":1795001950_5" function="internal">
        <lane id=":1795001950_5_0" index="0" disallow="tram rail_urban rail rail_electric rail_fast ship" speed="3.65" length="1.44" shape="1875.59,1574.03 1875.08,1575.38"/>
    </edge>
    <edge id=":1795001950_10" function="internal">
        <lane id=":1795001950_10_0" index="0" disallow="tram rail_urban rail rail_electric rail_fast ship" speed="7.89" length="10.45" shape="1875.94,1578.01 1874.91,1581.07 1872.50,1583.21 1868.69,1584.43"/>
    </edge>
    <edge id=":1795001950_11" function="internal">
        <lane id=":1795001950_11_0" index="0" disallow="tram rail_urban rail rail_electric rail_fast ship" speed="3.65" length="3.23" shape="1875.08,1575.38 1874.40,1575.96 1873.53,1575.75 1872.47,1574.77"/>
    </edge>
    <edge id=":1795001950_6" function="internal">
        <lane id=":1795001950_6_0" index="0" disallow="tram rail_urban rail rail_electric rail_fast ship" speed="6.37" length="9.04" shape="1868.16,1581.27 1870.54,1580.51 1872.05,1579.17 1872.70,1577.26 1872.47,1574.77"/>
    </edge>
    <edge id=":1795001950_7" function="internal">
        <lane id=":1795001950_7_0" index="0" disallow="tram rail_urban rail rail_electric rail_fast ship" speed="8.27" length="14.28" shape="1868.16,1581.27 1872.12,1581.14 1875.25,1582.21 1877.54,1584.48 1879.00,1587.96"/>
    </edge>
    <edge id=":1795001950_8" function="internal">
        <lane id=":1795001950_8_0" index="0" disallow="tram rail_urban rail rail_electric rail_fast ship" speed="3.65" length="4.67" shape="1868.16,1581.27 1869.47,1581.86 1870.00,1582.58 1869.74,1583.44 1868.69,1584.43"/>
    </edge>
    <edge id=":1795001951_0" function="internal">
        <lane id=":1795001951_0_0" index="0" disallow="tram rail_urban rail rail_electric rail_fast ship" speed="6.07" length="8.25" shape="2084.87,1580.50 2085.05,1582.79 2084.44,1584.52 2083.03,1585.70 2080.82,1586.32"/>
    </edge>
    <edge id=":1795001951_1" function="internal">
        <lane id=":1795001951_1_0" index="0" disallow="tram rail_urban rail rail_electric rail_fast ship" speed="3.65" length="1.44" shape="2084.87,1580.50 2084.35,1581.85"/>
    </edge>
    <edge id=":1795001951_4" function="internal">
        <lane id=":1795001951_4_0" index="0" disallow="tram rail_urban rail rail_electric rail_fast ship" speed="3.65" length="3.23" shape="2084.35,1581.85 2083.66,1582.42 2082.79,1582.20 2081.75,1581.21"/>
    </edge>
    <edge id=":1795001951_2" function="internal">
        <lane id=":1795001951_2_0" index="0" disallow="tram rail_urban rail rail_electric rail_fast ship" speed="3.90" length="2.75" shape="2080.40,1583.15 2081.13,1582.94 2081.60,1582.55 2081.81,1581.97 2081.75,1581.21"/>
    </edge>
    <edge id=":1795001951_3" function="internal">
        <lane id=":1795001951_3_0" index="0" disallow="tram rail_urban rail rail_electric rail_fast ship" speed="3.65" length="1.30" shape="2080.40,1583.15 2081.57,1583.72"/>
    </edge>
    <edge id=":1795001951_5" function="internal">
        <lane id=":1795001951_5_0" index="0" disallow="tram rail_urban rail rail_electric rail_fast ship" speed="3.65" length="3.37" shape="2081.57,1583.72 2081.69,1583.78 2082.20,1584.52 2081.91,1585.37 2080.82,1586.32"/>
    </edge>
    <edge id=":1795001952_0" function="internal">
        <lane id=":1795001952_0_0" index="0" disallow="tram rail_urban rail rail_electric rail_fast ship" speed="7.14" length="10.15" shape="2043.44,1597.30 2042.54,1594.77 2041.00,1593.04 2038.84,1592.11 2036.05,1591.98"/>
    </edge>
    <edge id=":1795001952_1" function="internal">
        <lane id=":1795001952_1_0" index="0" disallow="tram rail_urban rail rail_electric rail_fast ship" speed="13.89" length="15.04" shape="2043.44,1597.30 2040.29,1582.59"/>
    </edge>
    <edge id=":1795001952_2" function="internal">
        <lane id=":1795001952_2_0" index="0" disallow="tram rail_urban rail rail_electric rail_fast ship" speed="7.89" length="3.99" shape="2043.44,1597.30 2043.22,1593.32"/>
    </edge>
    <edge id=":1795001952_3" function="internal">
        <lane id=":1795001952_3_0" index="0" disallow="tram rail_urban rail rail_electric rail_fast ship" speed="3.65" length="1.44" shape="2043.44,1597.30 2043.99,1595.97"/>
    </edge>
    <edge id=":1795001952_16" function="internal">
        <lane id=":1795001952_16_0" index="0" disallow="tram rail_urban rail rail_electric rail_fast ship" speed="7.89" length="10.45" shape="2043.22,1593.32 2044.35,1590.29 2046.84,1588.24 2050.68,1587.15"/>
    </edge>
    <edge id=":1795001952_17" function="internal">
        <lane id=":1795001952_17_0" index="0" disallow="tram rail_urban rail rail_electric rail_fast ship" speed="3.65" length="3.23" shape="2043.99,1595.97 2044.70,1595.42 2045.56,1595.65 2046.58,1596.67"/>
    </edge>
    <edge id=":1795001952_4" function="internal">
        <lane id=":1795001952_4_0" index="0" disallow="tram rail_urban rail rail_electric rail_fast ship" speed="6.37" length="9.04" shape="2051.11,1590.32 2048.71,1591.00 2047.15,1592.29 2046.44,1594.18 2046.58,1596.67"/>
    </edge>
    <edge id=":1795001952_5" function="internal">
        <lane id=":1795001952_5_0" index="0" disallow="tram rail_urban rail rail_electric rail_fast ship" speed="13.89" length="15.15" shape="2051.11,1590.32 2036.05,1591.98"/>
    </edge>
    <edge id=":1795001952_6" function="internal">
        <lane id=":1795001952_6_0" index="0" disallow="tram rail_urban rail rail_electric rail_fast ship" speed="8.45" length="14.87" shape="2051.11,1590.32 2047.14,1590.28 2044.01,1588.98 2041.73,1586.42 2040.29,1582.59"/>
    </edge>
    <edge id=":1795001952_7" function="internal">
        <lane id=":1795001952_7_0" index="0" disallow="tram rail_urban rail rail_electric rail_fast ship" speed="3.65" length="4.67" shape="2051.11,1590.32 2049.81,1589.68 2049.31,1588.95 2049.60,1588.10 2050.68,1587.15"/>
    </edge>
    <edge id=":1795001952_8" function="internal">
        <lane id=":1795001952_8_0" index="0" disallow="tram rail_urban rail rail_electric rail_fast ship" speed="7.05" length="10.04" shape="2043.41,1581.89 2044.38,1584.49 2045.92,1586.23 2048.02,1587.11 2050.68,1587.15"/>
    </edge>
    <edge id=":1795001952_9" function="internal">
        <lane id=":1795001952_9_0" index="0" disallow="tram rail_urban rail rail_electric rail_fast ship" speed="13.89" length="15.12" shape="2043.41,1581.89 2046.58,1596.67"/>
    </edge>
    <edge id=":1795001952_10" function="internal">
        <lane id=":1795001952_10_0" index="0" disallow="tram rail_urban rail rail_electric rail_fast ship" speed="7.78" length="4.29" shape="2043.41,1581.89 2043.74,1585.99 2043.68,1586.15"/>
    </edge>
    <edge id=":1795001952_11" function="internal">
        <lane id=":1795001952_11_0" index="0" disallow="tram rail_urban rail rail_electric rail_fast ship" speed="3.65" length="1.44" shape="2043.41,1581.89 2042.90,1583.23"/>
    </edge>
    <edge id=":1795001952_18" function="internal">
        <lane id=":1795001952_18_0" index="0" disallow="tram rail_urban rail rail_electric rail_fast ship" speed="7.78" length="10.45" shape="2043.68,1586.15 2042.62,1589.04 2040.06,1591.04 2036.05,1591.98"/>
    </edge>
    <edge id=":1795001952_19" function="internal">
        <lane id=":1795001952_19_0" index="0" disallow="tram rail_urban rail rail_electric rail_fast ship" speed="3.65" length="3.23" shape="2042.90,1583.23 2042.21,1583.80 2041.34,1583.59 2040.29,1582.59"/>
    </edge>
    <edge id=":1795001952_12" function="internal">
        <lane id=":1795001952_12_0" index="0" disallow="tram rail_urban rail rail_electric rail_fast ship" speed="6.23" length="9.05" shape="2035.77,1588.79 2038.23,1588.21 2039.81,1586.99 2040.49,1585.12 2040.29,1582.59"/>
    </edge>
    <edge id=":1795001952_13" function="internal">
        <lane id=":1795001952_13_0" index="0" disallow="tram rail_urban rail rail_electric rail_fast ship" speed="13.89" length="15.00" shape="2035.77,1588.79 2050.68,1587.15"/>
    </edge>
    <edge id=":1795001952_14" function="internal">
        <lane id=":1795001952_14_0" index="0" disallow="tram rail_urban rail rail_electric rail_fast ship" speed="8.54" length="14.91" shape="2035.77,1588.79 2039.85,1588.99 2043.01,1590.37 2045.25,1592.93 2046.58,1596.67"/>
    </edge>
    <edge id=":1795001952_15" function="internal">
        <lane id=":1795001952_15_0" index="0" disallow="tram rail_urban rail rail_electric rail_fast ship" speed="3.65" length="4.67" shape="2035.77,1588.79 2037.04,1589.48 2037.50,1590.25 2037.17,1591.08 2036.05,1591.98"/>
    </edge>
    <edge id=":1795001956_0" function="internal">
        <lane id=":1795001956_0_0" index="0" disallow="tram rail_urban rail rail_electric rail_fast ship" speed="22.22" length="14.38" shape="1882.73,1616.07 1879.28,1602.11"/>
    </edge>
    <edge id=":1795001956_1" function="internal">
        <lane id=":1795001956_1_0" index="0" disallow="tram rail_urban rail rail_electric rail_fast ship" speed="7.85" length="4.04" shape="1882.73,1616.07 1882.35,1612.05"/>
    </edge>
    <edge id=":1795001956_2" function="internal">
        <lane id=":1795001956_2_0" index="0" disallow="tram rail_urban rail rail_electric rail_fast ship" speed="3.65" length="1.44" shape="1882.73,1616.07 1883.23,1614.72"/>
    </edge>
    <edge id=":1795001956_9" function="internal">
        <lane id=":1795001956_9_0" index="0" disallow="tram rail_urban rail rail_electric rail_fast ship" speed="7.85" length="10.51" shape="1882.35,1612.05 1883.39,1608.98 1885.84,1606.87 1889.71,1605.72"/>
    </edge>
    <edge id=":1795001956_10" function="internal">
        <lane id=":1795001956_10_0" index="0" disallow="tram rail_urban rail rail_electric rail_fast ship" speed="3.65" length="3.23" shape="1883.23,1614.72 1883.91,1614.14 1884.78,1614.34 1885.84,1615.32"/>
    </edge>
    <edge id=":1795001956_3" function="internal">
        <lane id=":1795001956_3_0" index="0" disallow="tram rail_urban rail rail_electric rail_fast ship" speed="6.32" length="9.04" shape="1890.18,1608.88 1887.77,1609.60 1886.25,1610.91 1885.61,1612.82 1885.84,1615.32"/>
    </edge>
    <edge id=":1795001956_4" function="internal">
        <lane id=":1795001956_4_0" index="0" disallow="tram rail_urban rail rail_electric rail_fast ship" speed="8.34" length="14.33" shape="1890.18,1608.88 1886.18,1608.95 1883.03,1607.85 1880.73,1605.57 1879.28,1602.11"/>
    </edge>
    <edge id=":1795001956_5" function="internal">
        <lane id=":1795001956_5_0" index="0" disallow="tram rail_urban rail rail_electric rail_fast ship" speed="3.65" length="4.67" shape="1890.18,1608.88 1888.87,1608.27 1888.36,1607.54 1888.64,1606.69 1889.71,1605.72"/>
    </edge>
    <edge id=":1795001956_6" function="internal">
        <lane id=":1795001956_6_0" index="0" disallow="tram rail_urban rail rail_electric rail_fast ship" speed="6.92" length="9.54" shape="1882.38,1601.33 1883.34,1603.58 1884.88,1605.06 1887.00,1605.78 1889.71,1605.72"/>
    </edge>
    <edge id=":1795001956_7" function="internal">
        <lane id=":1795001956_7_0" index="0" disallow="tram rail_urban rail rail_electric rail_fast ship" speed="22.22" length="14.41" shape="1882.38,1601.33 1885.84,1615.32"/>
    </edge>
    <edge id=":1795001956_8" function="internal">
        <lane id=":1795001956_8_0" index="0" disallow="tram rail_urban rail rail_electric rail_fast ship" speed="3.65" length="1.44" shape="1882.38,1601.33 1881.90,1602.69"/>
    </edge>
    <edge id=":1795001956_11" function="internal">
        <lane id=":1795001956_11_0" index="0" disallow="tram rail_urban rail rail_electric rail_fast ship" speed="3.65" length="3.23" shape="1881.90,1602.69 1881.22,1603.27 1880.35,1603.08 1879.28,1602.11"/>
    </edge>
    <edge id=":1795001964_0" function="internal">
        <lane id=":1795001964_0_0" index="0" disallow="tram rail_urban rail rail_electric rail_fast ship" speed="22.22" length="14.25" shape="1891.56,1655.53 1888.68,1641.58"/>
    </edge>
    <edge id=":1795001964_1" function="internal">
        <lane id=":1795001964_1_0" index="0" disallow="tram rail_urban rail rail_electric rail_fast ship" speed="7.93" length="3.95" shape="1891.56,1655.53 1891.39,1651.58"/>
    </edge>
    <edge id=":1795001964_2" function="internal">
        <lane id=":1795001964_2_0" index="0" disallow="tram rail_urban rail rail_electric rail_fast ship" speed="3.65" length="1.44" shape="1891.56,1655.53 1892.13,1654.20"/>
    </edge>
    <edge id=":1795001964_9" function="internal">
        <lane id=":1795001964_9_0" index="0" disallow="tram rail_urban rail rail_electric rail_fast ship" speed="7.93" length="10.39" shape="1891.39,1651.58 1892.53,1648.57 1895.00,1646.50 1898.79,1645.37"/>
    </edge>
    <edge id=":1795001964_10" function="internal">
        <lane id=":1795001964_10_0" index="0" disallow="tram rail_urban rail rail_electric rail_fast ship" speed="3.65" length="3.23" shape="1892.13,1654.20 1892.84,1653.66 1893.70,1653.91 1894.71,1654.94"/>
    </edge>
    <edge id=":1795001964_3" function="internal">
        <lane id=":1795001964_3_0" index="0" disallow="tram rail_urban rail rail_electric rail_fast ship" speed="6.42" length="9.04" shape="1899.26,1648.54 1896.87,1649.25 1895.32,1650.55 1894.60,1652.45 1894.71,1654.94"/>
    </edge>
    <edge id=":1795001964_4" function="internal">
        <lane id=":1795001964_4_0" index="0" disallow="tram rail_urban rail rail_electric rail_fast ship" speed="8.23" length="14.21" shape="1899.26,1648.54 1895.33,1648.59 1892.25,1647.45 1890.04,1645.11 1888.68,1641.58"/>
    </edge>
    <edge id=":1795001964_5" function="internal">